 DIM-GROUP
 3   9
 PRIMVEC
   4.1379996095     0.0000000000     0.0000000000
  -2.0689998048     3.5836111118     0.0000000000
   0.0000000000     0.0000000000    28.4799974886

 PRIMCOORD
 15 1
 Bi       0.0000000000     0.0000000000    11.3635187993       0.0000000000     0.0000000000     0.0000000000
 Bi       0.0000000000     0.0000000000    17.1164786893       0.0000000000     0.0000000000     0.0000000000
 Bi       2.0689998048     1.1945374511    20.8568504679       0.0000000000     0.0000000000     0.0000000000
 Bi       2.0689998048     1.1945374511    26.6098103578       0.0000000000     0.0000000000     0.0000000000
 Bi      -0.0000000000     2.3890753160     1.8701863031       0.0000000000     0.0000000000     0.0000000000
 Bi      -0.0000000000     2.3890753160     7.6231457793       0.0000000000     0.0000000000     0.0000000000
 Se       0.0000000000     0.0000000000     0.0000000000       0.0000000000     0.0000000000     0.0000000000
 Se       2.0689998048     1.1945374511     9.4933329100       0.0000000000     0.0000000000     0.0000000000
 Se      -0.0000000000     2.3890753160    18.9866654062       0.0000000000     0.0000000000     0.0000000000
 Se       0.0000000000     0.0000000000     5.8668794330       0.0000000000     0.0000000000     0.0000000000
 Se       0.0000000000     0.0000000000    22.6131188832       0.0000000000     0.0000000000     0.0000000000
 Se       2.0689998048     1.1945374511    15.3602123430       0.0000000000     0.0000000000     0.0000000000
 Se       2.0689998048     1.1945374511     3.6264526494       0.0000000000     0.0000000000     0.0000000000
 Se      -0.0000000000     2.3890753160    24.8535440116       0.0000000000     0.0000000000     0.0000000000
 Se      -0.0000000000     2.3890753160    13.1197851456       0.0000000000     0.0000000000     0.0000000000
 
