 DIM-GROUP
 3   1
 PRIMVEC
   2.4609999931     0.0000000000     0.0000000000
  -1.2304999966     2.1328674810     0.0000000000
   0.0000000000     0.0000000000    20.0000006020

 PRIMCOORD
 2 1
 C       1.2304999966     0.7104294191    10.0000000549       0.0000000000     0.0000000000     0.0000000000
 C       0.0000000000     1.4208590843    10.0000000549       0.0000000000     0.0000000000     0.0000000000
 
